/*--------------------------------*- C++ -*----------------------------------*\
| =========                 |                                                 |
| \\      /  F ield         | foam-extend: Open Source CFD                    |
|  \\    /   O peration     | Version:     4.1                                |
|   \\  /    A nd           | Web:         http://www.foam-extend.org         |
|    \\/     M anipulation  |                                                 |
\*---------------------------------------------------------------------------*/
FoamFile
{
    version     2.0;
    format      ascii;
    class       dictionary;
    object      transportProperties;
}
// * * * * * * * * * * * * * * * * * * * * * * * * * * * * * * * * * * * * * //

transportModel		ML4Foam;//Newtonian;

// Laminar viscosity
nu              nu [0 2 -1 0 0 0 0] 1e-05;

// Thermal expansion coefficient
beta            beta [0 0 0 -1 0 0 0] 3e-03;

// Reference temperature
TRef            TRef [0 0 0 1 0 0 0] 303;

// Turbulent Prandtl number
Prt             Prt [0 0 0 0 0 0 0] 0.9;


// ************************************************************************* //
