/*--------------------------------*- C++ -*----------------------------------*\
| =========                 |                                                 |
| \\      /  F ield         | foam-extend: Open Source CFD                    |
|  \\    /   O peration     | Version:     4.1                                |
|   \\  /    A nd           | Web:         http://www.foam-extend.org         |
|    \\/     M anipulation  |                                                 |
\*---------------------------------------------------------------------------*/
FoamFile
{
    version     2.0;
    format      ascii;
    class       dictionary;
    object      dataset;
}
// * * * * * * * * * * * * * * * * * * * * * * * * * * * * * * * * * * * * * //

//dataset with noise
trainingData // f = 3*x + 2 + noise
(
//((input1 input2 ...) (output1 output2 ...))
((0.0) (2.3))
((1.0) (5.0))
((6.0) (20.4))
((8.0) (26.1))
((4.0) (13.6))
((5.0) (17.8))
((3.0) (11.0))
((2.0) (8.5))
((7.0) (23.1))
((10.0) (32.2))
);


testingData
(
((9.0) (30.0))
((4.5) (15.5))
((2.2) (8.6))
);


/*
//dataset with noise
trainingData // f = 3*x*y + 2 + noise
(
//((input1 input2 ...) (output1 output2 ...))
((6.0 6.0) (20.4))
((0.0 0.0) (2.3))
((1.0 1.0) (5.0))

((8.0 8.0) (26.1))
((4.0 4.0) (13.6))
((5.0 5.0) (17.8))
((3.0 3.0) (11.0))
((2.0 2.0) (8.5))
((7.0 7.0) (23.1))
((10.0 10.0) (32.2))
);


testingData
(
((9.0) (30.0))
((4.5) (15.5))
((2.2) (8.6))
);
*/



/*
trainingData // f = (x-1)^2 +1.2
(
//((input1 input2 ...) (output1 output2 ...))
((1.3) (0.09))
((2.4) (1.96))
((2.8) (3.24))
((2.9) (3.61))
((3) (4))
((2.5) (2.25))
((2.6) (2.56))
((1.4) (0.16))
((1.5) (0.25))
((1.6) (0.36))
((1.7) (0.49))
((1.8) (0.64))
((1) (0))
((1.1) (0.01))
((1.2) (0.04))
((1.9) (0.81))
((2) (1))
((2.1) (1.21))
((2.2) (1.44))
((2.3) (1.69))
((2.7) (2.89))
);
*/

